# CIF file generated by openbabel 3.1.0, see https://openbabel.org
data_I
_chemical_name_common ''
_cell_length_a 16.9595
_cell_length_b 16.9595
_cell_length_c 16.9594
_cell_angle_alpha 89.9857
_cell_angle_beta 90.0267
_cell_angle_gamma 89.983
_space_group_name_H-M_alt 'P 1'
_space_group_name_Hall 'P 1'
loop_
    _symmetry_equiv_pos_as_xyz
    x,y,z
loop_
    _atom_site_label
    _atom_site_type_symbol
    _atom_site_fract_x
    _atom_site_fract_y
    _atom_site_fract_z
    _atom_site_occupancy
    O0       O        0.66772    0.68102    0.42941    1.000
    O1       O        0.57057    0.80923    0.20415    1.000
    O2       O        0.79586    0.90621    0.33231    1.000
    O3       O        0.57060    0.68107    0.33230    1.000
    O4       O        0.79588    0.80910    0.42941    1.000
    O5       O        0.66768    0.90628    0.20415    1.000
    O6       O        0.66774    0.03440    0.33228    1.000
    O7       O        0.57070    0.90627    0.55751    1.000
    O8       O        0.57068    0.03443    0.42936    1.000
    O9       O        0.66778    0.80914    0.55754    1.000
    O10      O        0.44247    0.80927    0.33227    1.000
    O11      O        0.44252    0.90634    0.42935    1.000
    C12      C        0.61921    0.06310    0.38082    1.000
    C13      C        0.61920    0.15095    0.38083    1.000
    C14      C        0.41382    0.85780    0.38082    1.000
    C15      C        0.32596    0.85775    0.38084    1.000
    C16      C        0.61925    0.85770    0.58701    1.000
    C17      C        0.61928    0.85768    0.67486    1.000
    C18      C        0.95448    0.90820    0.43138    1.000
    C19      C        0.95449    0.80704    0.33037    1.000
    C20      C        0.03704    0.80706    0.33037    1.000
    C21      C        0.07831    0.85766    0.38087    1.000
    C22      C        0.03703    0.90823    0.43138    1.000
    C23      C        0.07832    0.75650    0.27985    1.000
    C24      C        0.16087    0.75652    0.27984    1.000
    C25      C        0.20214    0.80712    0.33035    1.000
    C26      C        0.16086    0.85769    0.38086    1.000
    C27      C        0.20213    0.90829    0.43136    1.000
    C28      C        0.16085    0.95886    0.48188    1.000
    C29      C        0.07830    0.95883    0.48188    1.000
    C30      C        0.28469    0.80715    0.33034    1.000
    C31      C        0.28468    0.90832    0.43135    1.000
    C32      C        0.82535    0.85764    0.38087    1.000
    C33      C        0.91321    0.85761    0.38088    1.000
    C34      C        0.61916    0.65156    0.38086    1.000
    C35      C        0.61914    0.56370    0.38086    1.000
    C36      C        0.66976    0.52244    0.33040    1.000
    C37      C        0.56854    0.52242    0.43132    1.000
    C38      C        0.56855    0.43987    0.43132    1.000
    C39      C        0.61917    0.39861    0.38085    1.000
    C40      C        0.66977    0.43989    0.33039    1.000
    C41      C        0.51794    0.39859    0.48178    1.000
    C42      C        0.51794    0.31603    0.48177    1.000
    C43      C        0.56857    0.27477    0.43131    1.000
    C44      C        0.61918    0.31605    0.38084    1.000
    C45      C        0.66980    0.27479    0.33037    1.000
    C46      C        0.72041    0.31607    0.27991    1.000
    C47      C        0.72040    0.39862    0.27992    1.000
    C48      C        0.56858    0.19222    0.43130    1.000
    C49      C        0.66981    0.19223    0.33037    1.000
    C50      C        0.61917    0.85772    0.17547    1.000
    C51      C        0.61937    0.85758    0.08762    1.000
    C52      C        0.56882    0.90816    0.04633    1.000
    C53      C        0.66990    0.80702    0.04635    1.000
    C54      C        0.66989    0.80704    0.96380    1.000
    C55      C        0.61933    0.85762    0.92252    1.000
    C56      C        0.56879    0.90818    0.96378    1.000
    C57      C        0.72042    0.75647    0.92254    1.000
    C58      C        0.72040    0.75649    0.83999    1.000
    C59      C        0.66985    0.80708    0.79870    1.000
    C60      C        0.61931    0.85764    0.83996    1.000
    C61      C        0.56876    0.90822    0.79868    1.000
    C62      C        0.51822    0.95879    0.83994    1.000
    C63      C        0.51824    0.95877    0.92249    1.000
    C64      C        0.66983    0.80710    0.71615    1.000
    C65      C        0.56874    0.90824    0.71612    1.000
    H66      H        0.31828    0.94952    0.47248    1.000
    H67      H        0.19446    0.00006    0.52299    1.000
    H68      H        0.52737    0.15861    0.47238    1.000
    H69      H        0.76155    0.71531    0.80640    1.000
    H70      H        0.19448    0.71535    0.23871    1.000
    H71      H        0.92086    0.94937    0.47251    1.000
    H72      H        0.71103    0.15864    0.28927    1.000
    H73      H        0.92089    0.76585    0.28925    1.000
    H74      H        0.52758    0.94944    0.68251    1.000
    H75      H        0.04468    0.00000    0.52301    1.000
    H76      H        0.04471    0.71531    0.23873    1.000
    H77      H        0.71106    0.76583    0.07997    1.000
    H78      H        0.76157    0.71528    0.95616    1.000
    H79      H        0.52732    0.55602    0.47241    1.000
    H80      H        0.31830    0.76598    0.28921    1.000
    H81      H        0.52767    0.94934    0.07993    1.000
    H82      H        0.76162    0.28246    0.23882    1.000
    H83      H        0.76160    0.43224    0.23884    1.000
    H84      H        0.47706    0.99997    0.80631    1.000
    H85      H        0.71097    0.55606    0.28931    1.000
    H86      H        0.47710    0.99994    0.95609    1.000
    H87      H        0.47672    0.43219    0.52286    1.000
    H88      H        0.47673    0.28243    0.52286    1.000
    H89      H        0.71097    0.76593    0.68256    1.000
loop_
    _geom_bond_atom_site_label_1
    _geom_bond_atom_site_label_2
    _geom_bond_distance
    _geom_bond_site_symmetry_2
    _ccdc_geom_bond_type
    C51    C50       1.49000      .   S
    C51    C52       1.40000      .   S
    C51    C53       1.40001      .   S
    C50    O1        1.26196      .   S
    C50    O5        1.26171      .   S
    H70    C24       1.13994      .   S
    H76    C23       1.13987      .   S
    H82    C46       1.13996      .   S
    H83    C47       1.13993      .   S
    C24    C23       1.40000      .   S
    C24    C25       1.40002      .   S
    C23    C20       1.40002      .   S
    C46    C47       1.39999      .   S
    C46    C45       1.40006      .   S
    C47    C40       1.40001      .   S
    H80    C30       1.13987      .   S
    H73    C19       1.13987      .   S
    H72    C49       1.13996      .   S
    H85    C36       1.13994      .   S
    C30    C25       1.39999      .   S
    C30    C15       1.39998      .   S
    C25    C26       1.40006      .   S
    C20    C19       1.39994  1_455   S
    C20    C21       1.39999      .   S
    C49    C45       1.40007      .   S
    C49    C13       1.39998      .   S
    C19    C33       1.40001      .   S
    C45    C44       1.39998      .   S
    C40    C36       1.40007      .   S
    C40    C39       1.39999      .   S
    C36    C35       1.39998      .   S
    O10    C14       1.26179      .   S
    O6     C12       1.26185      .   S
    O3     C34       1.26714      .   S
    O2     C32       1.26714      .   S
    C12    C13       1.49001      .   S
    C12    O8        1.26182      .   S
    C14    C15       1.49001      .   S
    C14    O11       1.26189      .   S
    C13    C48       1.39999      .   S
    C44    C39       1.40007      .   S
    C44    C43       1.40007      .   S
    C15    C31       1.39999      .   S
    C39    C38       1.39999      .   S
    C34    C35       1.49001      .   S
    C34    O0        1.26715      .   S
    C26    C21       1.40007      .   S
    C26    C27       1.39998      .   S
    C35    C37       1.40000      .   S
    C21    C22       1.39998      .   S
    C32    C33       1.49001      .   S
    C32    O4        1.26713      .   S
    C33    C18       1.39998      .   S
    C48    C43       1.39997      .   S
    C48    H68       1.13988      .   S
    C43    C42       1.40002      .   S
    C38    C37       1.39994      .   S
    C38    C41       1.40001      .   S
    C37    H79       1.13987      .   S
    C31    C27       1.40007      .   S
    C31    H66       1.13995      .   S
    C27    C28       1.40008      .   S
    C22    C18       1.40007  1_455   S
    C22    C29       1.40001      .   S
    C18    H71       1.13994      .   S
    C42    C41       1.40002      .   S
    C42    H88       1.13994      .   S
    C41    H87       1.13985      .   S
    C28    C29       1.39997      .   S
    C28    H67       1.13995  1_565   S
    C29    H75       1.13994  1_565   S
    O7     C16       1.26714      .   S
    O9     C16       1.26715      .   S
    C16    C17       1.48999      .   S
    C17    C65       1.39999      .   S
    C17    C64       1.39999      .   S
    H74    C65       1.13996      .   S
    H89    C64       1.13990      .   S
    C65    C61       1.40005      .   S
    C64    C59       1.39997      .   S
    C61    C62       1.40007      .   S
    C61    C60       1.40000      .   S
    C59    C60       1.40007      .   S
    C59    C58       1.40001      .   S
    H84    C62       1.13997      .   S
    H69    C58       1.13993      .   S
    C62    C63       1.39999      .   S
    C60    C55       1.40005      .   S
    C58    C57       1.40002      .   S
    C63    H86       1.13994      .   S
    C63    C56       1.40002      .   S
    C55    C56       1.39999      .   S
    C55    C54       1.39999      .   S
    C57    H78       1.13987      .   S
    C57    C54       1.40002      .   S
    C56    C52       1.40005  1_556   S
    C54    C53       1.39993  1_556   S
    C52    H81       1.13993      .   S
    C53    H77       1.13986      .   S
